/*--------------------------------*- C++ -*----------------------------------*\
  =========                 |
  \\      /  F ield         | OpenFOAM: The Open Source CFD Toolbox
   \\    /   O peration     | Website:  https://openfoam.org
    \\  /    A nd           | Version:  6
     \\/     M anipulation  |
\*---------------------------------------------------------------------------*/
FoamFile
{
    version     2.0;
    format      ascii;
    class       dictionary;
    location    "constant";
    object      dynamicMeshDict;
}
// * * * * * * * * * * * * * * * * * * * * * * * * * * * * * * * * * * * * * //

dynamicFvMesh   dynamicRefineBalancedFvMesh;

multiCritRefinementControls
{
    enableMultiCritRefinementControl  true;

    writeDebugFields true;

    interface
    (
        alpha.water
        {
            innerRefLayers 3;
            outerRefLayers 5;
            //nAddLayers 2;
        }
    );

    fields
    (
        /*alpha.water
        {
            minValue  0.1;
            maxValue  1.1;
            refineLevel 2;
            nAddLayers  0;
        }*/
    );

    gradients
    (
    );

    curls
    (
    );

    regions
    (
        /*boxToCell
        {
            minLevel 1;
            box  (0.325 0.325 -0.05) (0.675 0.675 0.3);
        }*/
        boxToCell
        {
            minLevel 2;
            box (-1 -1 -1)(0.4 0.1 0.4);
        }

        boxToCell
        {
            minLevel 1;
            box (0.21 -1.01 0.31)(1.01 0.11 0.61);
        }
    );
}

dynamicRefineFvMeshCoeffs
{
    // for load balancing
    enableBalancing true;
    allowableImbalance 0.10;

    // How often to refine
    refineInterval  5;

    // Field to be refinement on
    field           multiCritRefinementField;

    // Refine field inbetween lower..upper
    lowerRefineLevel 0.5;
    upperRefineLevel 2.5;

    // If value < unrefineLevel unrefine
    unrefineLevel   -0.5;

    // Have slower than 2:1 refinement
    nBufferLayers   3;

    // Refine cells only up to maxRefinement levels
    maxRefinement   2;

    // Stop refinement if maxCells reached
    maxCells        300000;

    // Flux field and corresponding velocity field. Fluxes on changed
    // faces get recalculated by interpolating the velocity. Use 'none'
    // on surfaceScalarFields that do not need to be reinterpolated.
    correctFluxes
    (
        (phi none)
        (nHatf none)
        (rhoPhi none)
        (alphaPhi none)
        (alphaPhi0.water none)
        (ghf none)
    );

    mapSurfaceFields
    (
        Uf
        Uf_0
    );

    // Write the refinement level as a volScalarField
    dumpLevel       true;
}


// ************************************************************************* //
